Version 4
SHEET 1 880 680
WIRE -144 -80 -656 -80
WIRE 64 -80 -144 -80
WIRE -144 -32 -144 -80
WIRE 64 -32 64 -80
WIRE 64 80 64 48
WIRE 176 80 64 80
WIRE -144 112 -144 48
WIRE -112 112 -144 112
WIRE -16 112 -32 112
WIRE 64 128 64 80
WIRE -656 160 -656 -80
WIRE -432 176 -496 176
WIRE -16 176 -16 112
WIRE -16 176 -368 176
WIRE 0 176 -16 176
WIRE -144 272 -144 112
WIRE -144 272 -240 272
WIRE 64 272 64 224
WIRE 176 272 64 272
WIRE 64 304 64 272
WIRE 176 304 176 272
WIRE -240 320 -240 272
WIRE -144 320 -144 272
WIRE -496 336 -496 176
WIRE 64 416 64 384
WIRE 176 416 176 368
WIRE 176 416 64 416
WIRE -656 464 -656 224
WIRE -496 464 -496 416
WIRE -496 464 -656 464
WIRE -240 464 -240 384
WIRE -240 464 -496 464
WIRE -144 464 -144 400
WIRE -144 464 -240 464
WIRE 64 464 64 416
WIRE 64 464 -144 464
WIRE -656 496 -656 464
FLAG -656 496 0
FLAG 176 80 OUT
IOPIN 176 80 Out
SYMBOL npn 0 128 R0
SYMATTR InstName Q1
SYMATTR Value 2N2222
SYMBOL res 48 -48 R0
SYMATTR InstName R1
SYMATTR Value 10k
SYMBOL res -160 -48 R0
SYMATTR InstName R2
SYMATTR Value 110k
SYMBOL res 48 288 R0
SYMATTR InstName R3
SYMATTR Value 1.8k
SYMBOL res -160 304 R0
SYMATTR InstName R4
SYMATTR Value 10k
SYMBOL res -16 96 R90
WINDOW 0 0 56 VBottom 2
WINDOW 3 32 56 VTop 2
SYMATTR InstName R5
SYMATTR Value 10k
SYMBOL cap 160 304 R0
WINDOW 3 29 54 Left 2
SYMATTR InstName C1
SYMATTR Value 100µ
SYMBOL cap -256 320 R0
SYMATTR InstName C2
SYMATTR Value 100µ
SYMBOL cap -368 160 R90
WINDOW 0 0 32 VBottom 2
WINDOW 3 32 32 VTop 2
SYMATTR InstName C3
SYMATTR Value 10µ
SYMBOL voltage -496 320 R0
WINDOW 123 0 0 Left 0
WINDOW 39 0 0 Left 0
SYMATTR InstName V1
SYMATTR Value SINE(0 0.01 400)
SYMBOL Misc\\cell -656 160 R0
WINDOW 123 0 0 Left 0
WINDOW 39 0 0 Left 0
SYMATTR InstName V2
SYMATTR Value 12
TEXT -432 512 Left 2 !.tran 10m
